### 
### Created by X-TOOL on Mon Sep 10 21:12:46 2018
### 

@<TRIPOS>MOLECULE
1agw_ligand
   44    47     1     0     0
SMALL
GAST_HUCK


@<TRIPOS>ATOM
      1 H1          5.2005    1.7049   20.2886 H         1 SU2         0.2251
      2 H2          7.8424    6.2528   19.1756 H         1 SU2         0.0561
      3 H3          7.0025    6.1833   16.8514 H         1 SU2         0.0486
      4 H4          5.5324    4.3545   16.0907 H         1 SU2         0.0562
      5 H5          4.8815    2.5295   17.6122 H         1 SU2         0.0498
      6 H6          7.9735    6.1125   21.7862 H         1 SU2         0.0711
      7 H7          9.8783    6.4361   23.3191 H         1 SU2         0.0625
      8 H8         11.2070    5.7812   25.2910 H         1 SU2         0.0538
      9 H9          9.1253    2.0521   25.4448 H         1 SU2         0.0538
     10 H10         7.8023    2.7060   23.4673 H         1 SU2         0.0625
     11 H11        12.9549    1.3416   30.7458 H         1 SU2         0.1546
     12 H12        12.5027    1.2185   27.6581 H         1 SU2         0.0544
     13 H13        11.3105    0.9701   28.9786 H         1 SU2         0.0544
     14 H14        10.3863    1.4808   26.7022 H         1 SU2         0.0539
     15 H15         9.8058    2.5055   28.0586 H         1 SU2         0.0539
     16 H16        11.0015    5.0621   28.0651 H         1 SU2         0.0539
     17 H17        12.2394    5.2211   26.7732 H         1 SU2         0.0539
     18 H18        13.7361    3.8206   27.8431 H         1 SU2         0.0544
     19 H19        13.0046    4.7670   29.1832 H         1 SU2         0.0544
     20 N1          5.7630    2.5310   20.3220 N.am      1 SU2        -0.2360
     21 C2          6.4340    2.9940   21.4270 C.2       1 SU2         0.2230
     22 O2          6.3730    2.3820   22.4940 O.2       1 SU2        -0.3770
     23 C3          7.0950    4.1650   21.1310 C.2       1 SU2         0.0477
     24 C4          7.1970    5.4450   18.8500 C.ar      1 SU2        -0.0703
     25 C5          6.7240    5.4000   17.5470 C.ar      1 SU2        -0.0786
     26 C6          5.8900    4.3560   17.1140 C.ar      1 SU2        -0.0772
     27 C7          5.5170    3.3380   17.9550 C.ar      1 SU2        -0.0426
     28 C8          5.9880    3.3830   19.2720 C.ar      1 SU2         0.0712
     29 C9          6.8240    4.4240   19.7400 C.ar      1 SU2         0.0043
     30 C10         7.9420    5.0530   22.0360 C.2       1 SU2        -0.0422
     31 C1'         8.7500    4.6160   23.2540 C.ar      1 SU2        -0.0266
     32 C2'         9.7100    5.4700   23.7810 C.ar      1 SU2        -0.0595
     33 C3'        10.4610    5.1000   24.8980 C.ar      1 SU2        -0.0375
     34 C4'        10.2640    3.8680   25.5130 C.ar      1 SU2         0.0476
     35 C5'         9.2980    3.0170   24.9820 C.ar      1 SU2        -0.0375
     36 C6'         8.5480    3.3860   23.8630 C.ar      1 SU2        -0.0595
     37 N1'        12.4930    2.7110   29.1520 N.am      1 SU2        -0.2709
     38 C11        13.2630    2.2770   30.2810 C.2       1 SU2         0.1719
     39 O3         14.2360    2.8450   30.7850 O.2       1 SU2        -0.3829
     40 C2'        11.7640    1.7130   28.3060 C.3       1 SU2         0.0542
     41 C3'        10.6690    2.2640   27.4210 C.3       1 SU2         0.0491
     42 N4'        11.0300    3.4890   26.6500 N.pl3     1 SU2        -0.3010
     43 C5'        11.7510    4.5220   27.4680 C.3       1 SU2         0.0491
     44 C6'        12.8190    3.9910   28.4260 C.3       1 SU2         0.0542
@<TRIPOS>BOND
     1   20    1 1  
     2   24    2 1  
     3   25    3 1  
     4   26    4 1  
     5   27    5 1  
     6   30    6 1  
     7   32    7 1  
     8   33    8 1  
     9   35    9 1  
    10   36   10 1  
    11   38   11 1  
    12   40   12 1  
    13   40   13 1  
    14   41   14 1  
    15   41   15 1  
    16   43   16 1  
    17   43   17 1  
    18   44   18 1  
    19   44   19 1  
    20   28   20 1  
    21   21   20 am 
    22   23   21 1  
    23   21   22 2  
    24   30   23 2  
    25   23   29 1  
    26   29   28 ar 
    27   29   24 ar 
    28   24   25 ar 
    29   25   26 ar 
    30   27   26 ar 
    31   28   27 ar 
    32   31   30 1  
    33   36   31 ar 
    34   32   31 ar 
    35   33   32 ar 
    36   34   33 ar 
    37   42   34 1  
    38   34   35 ar 
    39   35   36 ar 
    40   42   43 1  
    41   41   42 1  
    42   40   41 1  
    43   37   40 1  
    44   37   44 1  
    45   37   38 am 
    46   38   39 2  
    47   44   43 1  
@<TRIPOS>SUBSTRUCTURE
     1 SU2         1

