### 
### Created by X-TOOL on Mon Sep 10 21:12:45 2018
### 

@<TRIPOS>MOLECULE
1ahx_ligand
   20    20     1     0     0
SMALL
GAST_HUCK


@<TRIPOS>ATOM
      1 C1        -10.2340   56.7110   23.8630 C.2       1 HCI         0.0367
      2 O1        -11.2720   56.7050   23.2390 O.co2     1 HCI        -0.5688
      3 O2        -10.1360   57.2790   25.0310 O.co2     1 HCI        -0.5688
      4 C2         -9.0350   56.0370   23.1180 C.3       1 HCI         0.0099
      5 C3         -9.2200   54.5170   22.7860 C.3       1 HCI        -0.0076
      6 C1'        -9.2120   53.5680   23.9780 C.ar      1 HCI        -0.0414
      7 C2'        -8.0510   52.8910   24.3810 C.ar      1 HCI        -0.0602
      8 C3'        -8.0730   52.0090   25.4680 C.ar      1 HCI        -0.0686
      9 C4'        -9.2780   51.7920   26.1390 C.ar      1 HCI        -0.0687
     10 C5'       -10.4490   52.4350   25.7340 C.ar      1 HCI        -0.0686
     11 C6'       -10.4120   53.3030   24.6480 C.ar      1 HCI        -0.0602
     12 H1         -8.1411   56.1399   23.7507 H         1 HCI         0.0453
     13 H2         -8.8781   56.5746   22.1712 H         1 HCI         0.0453
     14 H3         -8.4038   54.2178   22.1120 H         1 HCI         0.0444
     15 H4        -10.1839   54.4001   22.2691 H         1 HCI         0.0444
     16 H5         -7.1239   53.0532   23.8431 H         1 HCI         0.0557
     17 H6         -7.1683   51.5023   25.7839 H         1 HCI         0.0599
     18 H7         -9.3046   51.1154   26.9855 H         1 HCI         0.0559
     19 H8        -11.3795   52.2592   26.2616 H         1 HCI         0.0599
     20 H9        -11.3261   53.7814   24.3155 H         1 HCI         0.0557
@<TRIPOS>BOND
     1    1    2 ar 
     2    1    3 ar 
     3    1    4 1  
     4    4    5 1  
     5    5    6 1  
     6    6    7 ar 
     7    6   11 ar 
     8    7    8 ar 
     9    8    9 ar 
    10    9   10 ar 
    11   10   11 ar 
    12    4   12 1  
    13    4   13 1  
    14    5   14 1  
    15    5   15 1  
    16    7   16 1  
    17    8   17 1  
    18    9   18 1  
    19   10   19 1  
    20   11   20 1  
@<TRIPOS>SUBSTRUCTURE
     1 HCI         1

