### 
### Created by X-TOOL on Mon Sep 10 21:12:45 2018
### 

@<TRIPOS>MOLECULE
1aht_ligand
   27    27     1     0     0
SMALL
GAST_HUCK


@<TRIPOS>ATOM
      1 C1         14.9970  -10.8930   17.1980 C.2       1 APA         0.0654
      2 O1         16.2500  -10.9640   17.2510 O.co2     1 APA        -0.5662
      3 OXT        14.3770  -11.1770   16.1580 O.co2     1 APA        -0.5662
      4 C2         14.0670  -10.4430   18.3500 C.3       1 APA         0.1166
      5 O2         12.7450  -10.4300   18.2630 O.3       1 APA        -0.3756
      6 C3         14.7520  -11.1470   19.5720 C.3       1 APA         0.0189
      7 C1'        13.7040  -11.4720   20.6530 C.ar      1 APA        -0.0389
      8 C2'        12.8970  -12.5940   20.7410 C.ar      1 APA        -0.0602
      9 C3'        11.9680  -12.7520   21.7720 C.ar      1 APA        -0.0633
     10 C4'        11.8160  -11.7670   22.7610 C.ar      1 APA         0.0188
     11 C5'        12.6210  -10.6400   22.6810 C.ar      1 APA        -0.0633
     12 C6'        13.5350  -10.5240   21.6420 C.ar      1 APA        -0.0602
     13 C          10.8810  -11.7680   23.9710 C.cat     1 APA         0.2318
     14 N1         10.1680  -12.8530   24.2390 N.pl3     1 APA        -0.2729
     15 N2         10.6240  -10.6320   24.6310 N.pl3     1 APA        -0.2729
     16 H1         14.2811   -9.3712   18.4737 H         1 APA         0.0786
     17 H2         12.3779  -10.1198   19.0824 H         1 APA         0.2126
     18 H3         15.5158  -10.4783   19.9956 H         1 APA         0.0469
     19 H4         15.2275  -12.0797   19.2346 H         1 APA         0.0469
     20 H5         12.9887  -13.3702   19.9899 H         1 APA         0.0557
     21 H6         11.3566  -13.6464   21.8091 H         1 APA         0.0599
     22 H7         12.5371   -9.8555   23.4243 H         1 APA         0.0599
     23 H8         14.1536   -9.6346   21.6054 H         1 APA         0.0557
     24 H9          9.5348  -12.8655   25.0513 H         1 APA         0.3180
     25 H10        10.2472  -13.6835   23.6349 H         1 APA         0.3180
     26 H11        11.1727   -9.7839   24.4296 H         1 APA         0.3180
     27 H12         9.8775  -10.6060   25.3402 H         1 APA         0.3180
@<TRIPOS>BOND
     1    1    2 ar 
     2    1    3 ar 
     3    1    4 1  
     4    4    5 1  
     5    4    6 1  
     6    6    7 1  
     7    7    8 ar 
     8    7   12 ar 
     9    8    9 ar 
    10    9   10 ar 
    11   10   11 ar 
    12   10   13 1  
    13   11   12 ar 
    14   13   14 ar 
    15   13   15 ar 
    16    4   16 1  
    17    5   17 1  
    18    6   18 1  
    19    6   19 1  
    20    8   20 1  
    21    9   21 1  
    22   11   22 1  
    23   12   23 1  
    24   14   24 1  
    25   14   25 1  
    26   15   26 1  
    27   15   27 1  
@<TRIPOS>SUBSTRUCTURE
     1 APA         1

