### 
### Created by X-TOOL on Mon Sep 10 21:12:45 2018
### 

@<TRIPOS>MOLECULE
1ahy_ligand
   10     9     1     0     0
SMALL
GAST_HUCK


@<TRIPOS>ATOM
      1 C1         -9.5480   53.2920   24.8840 C.2       1 MAE         0.0606
      2 O1         -9.1740   52.0800   24.9770 O.co2     1 MAE        -0.5598
      3 O2        -10.2880   53.8910   25.7420 O.co2     1 MAE        -0.5598
      4 C2         -9.1070   54.1020   23.7050 C.2       1 MAE        -0.0149
      5 C3         -9.4240   55.3490   23.3490 C.2       1 MAE        -0.0149
      6 C4        -10.3320   56.3460   24.0030 C.2       1 MAE         0.0606
      7 O3        -11.4260   56.6050   23.4540 O.co2     1 MAE        -0.5598
      8 O4         -9.9720   56.9270   25.0550 O.co2     1 MAE        -0.5598
      9 H1         -8.4188   53.5938   23.0312 H         1 MAE         0.0739
     10 H2         -8.9453   55.6984   22.4354 H         1 MAE         0.0739
@<TRIPOS>BOND
     1    1    2 ar 
     2    1    3 ar 
     3    1    4 1  
     4    4    5 2  
     5    5    6 1  
     6    6    7 ar 
     7    6    8 ar 
     8    4    9 1  
     9    5   10 1  
@<TRIPOS>SUBSTRUCTURE
     1 MAE         1

